@<TRIPOS>MOLECULE
DETA_cyclohexane.sdf
   75    75     1     0     0
SMALL
bcc


@<TRIPOS>ATOM
      1 C            1.1010    -5.1410    -0.8550 c3         1 UNL      -0.134600
      2 C1           0.9680    -3.8940     0.0100 c3         1 UNL       0.114550
      3 N            1.4740    -2.6100    -0.6830 n4         1 UNL      -0.612300
      4 C2           0.6820    -2.2140    -1.9650 c3         1 UNL       0.091300
      5 C3          -0.8850    -1.8770    -1.8710 c3         1 UNL       0.090800
      6 N1          -1.5990    -1.6850    -3.3490 n4         1 UNL      -0.601800
      7 C4          -1.5290    -3.0310    -4.1740 c3         1 UNL       0.090800
      8 C5          -1.9790    -4.4140    -3.4950 c3         1 UNL       0.091300
      9 N2          -3.4870    -4.7350    -3.2430 n4         1 UNL      -0.612300
     10 C6          -4.3370    -4.4790    -4.5250 c3         1 UNL       0.114550
     11 C7          -3.9420    -5.3580    -5.7070 c3         1 UNL      -0.134600
     12 C8           1.4560    -1.4140     0.3270 c3         1 UNL       0.114550
     13 C9           2.4840    -1.5090     1.4450 c3         1 UNL      -0.134600
     14 C10         -3.6580    -6.2720    -2.8530 c3         1 UNL       0.114550
     15 C11         -5.1190    -6.6340    -2.5570 c3         1 UNL      -0.134600
     16 C12         -3.1020    -1.0950    -3.3470 c3         1 UNL       0.105800
     17 C13         -3.7750    -0.7840    -4.7540 c6         1 UNL      -0.086700
     18 C14         -0.7850    -0.5440    -4.0360 c3         1 UNL       0.072100
     19 C15          2.9680    -2.8290    -1.1180 c3         1 UNL       0.078100
     20 C16         -4.0240    -3.9940    -2.0100 c3         1 UNL       0.078100
     21 C17         -3.2590     0.4810    -5.4650 c6         1 UNL      -0.081400
     22 C18         -4.1280     1.0250    -6.5980 c6         1 UNL      -0.080400
     23 C19         -5.5890     1.1220    -6.2120 c6         1 UNL      -0.090400
     24 C20         -6.0870    -0.2490    -5.7870 c6         1 UNL      -0.080400
     25 C21         -5.3170    -0.7360    -4.5590 c6         1 UNL      -0.081400
     26 H            0.6540    -5.0230    -1.8440 hc         1 UNL       0.086617
     27 H1           0.6020    -5.9840    -0.3670 hc         1 UNL       0.086617
     28 H2           2.1490    -5.4290    -0.9880 hc         1 UNL       0.086617
     29 H3          -0.0760    -3.7180     0.2750 hx         1 UNL       0.103575
     30 H4           1.5450    -4.0380     0.9270 hx         1 UNL       0.103575
     31 H5           1.2260    -1.3420    -2.3330 hx         1 UNL       0.113200
     32 H6           0.8410    -3.0260    -2.6790 hx         1 UNL       0.113200
     33 H7          -1.4160    -2.6900    -1.3790 hx         1 UNL       0.115450
     34 H8          -1.0650    -0.9420    -1.3330 hx         1 UNL       0.115450
     35 H9          -2.0320    -2.8660    -5.1270 hx         1 UNL       0.115450
     36 H10         -0.4650    -3.1350    -4.4190 hx         1 UNL       0.115450
     37 H11         -1.6180    -5.2150    -4.1530 hx         1 UNL       0.113200
     38 H12         -1.4770    -4.5550    -2.5360 hx         1 UNL       0.113200
     39 H13         -5.3940    -4.6020    -4.2720 hx         1 UNL       0.103575
     40 H14         -4.1860    -3.4390    -4.7840 hx         1 UNL       0.103575
     41 H15         -4.1940    -6.4090    -5.5430 hc         1 UNL       0.086617
     42 H16         -4.4900    -5.0400    -6.6000 hc         1 UNL       0.086617
     43 H17         -2.8780    -5.2890    -5.9470 hc         1 UNL       0.086617
     44 H18          1.6420    -0.5050    -0.2600 hx         1 UNL       0.103575
     45 H19          0.4380    -1.3700     0.7300 hx         1 UNL       0.103575
     46 H20          3.4940    -1.2850     1.0740 hc         1 UNL       0.086617
     47 H21          2.2600    -0.7670     2.2150 hc         1 UNL       0.086617
     48 H22          2.5130    -2.4890     1.9300 hc         1 UNL       0.086617
     49 H23         -3.2450    -6.8740    -3.6630 hx         1 UNL       0.103575
     50 H24         -3.0320    -6.4250    -1.9640 hx         1 UNL       0.103575
     51 H25         -5.7470    -6.5760    -3.4490 hc         1 UNL       0.086617
     52 H26         -5.1800    -7.6580    -2.1790 hc         1 UNL       0.086617
     53 H27         -5.5790    -5.9990    -1.7930 hc         1 UNL       0.086617
     54 H28         -3.7140    -1.8180    -2.8470 hx         1 UNL       0.106700
     55 H29         -3.0820    -0.2000    -2.7110 hx         1 UNL       0.106700
     56 H30         -3.5900    -1.6110    -5.4500 hc         1 UNL       0.041700
     57 H31         -1.1740     0.4200    -3.6620 hx         1 UNL       0.119033
     58 H32          0.2580    -0.5930    -3.7670 hx         1 UNL       0.119033
     59 H33         -0.8500    -0.6700    -5.1080 hx         1 UNL       0.119033
     60 H34          3.5260    -3.2340    -0.2700 hx         1 UNL       0.115200
     61 H35          2.9830    -3.5350    -1.9530 hx         1 UNL       0.115200
     62 H36          3.3720    -1.8650    -1.4410 hx         1 UNL       0.115200
     63 H37         -4.0800    -4.6640    -1.1480 hx         1 UNL       0.115200
     64 H38         -3.3370    -3.2250    -1.7010 hx         1 UNL       0.115200
     65 H39         -5.0190    -3.5870    -2.2400 hx         1 UNL       0.115200
     66 H40         -3.0980     1.2750    -4.7270 hc         1 UNL       0.050450
     67 H41         -2.3020     0.2700    -5.9410 hc         1 UNL       0.050450
     68 H42         -3.7540     2.0110    -6.8960 hc         1 UNL       0.064200
     69 H43         -4.0290     0.3760    -7.4790 hc         1 UNL       0.064200
     70 H44         -5.7120     1.8380    -5.3910 hc         1 UNL       0.082200
     71 H45         -6.1740     1.4980    -7.0570 hc         1 UNL       0.082200
     72 H46         -7.1580    -0.1930    -5.5600 hc         1 UNL       0.064200
     73 H47         -5.9750    -0.9690    -6.6140 hc         1 UNL       0.064200
     74 H48         -5.6910    -1.7330    -4.3010 hc         1 UNL       0.050450
     75 H49         -5.5550    -0.0830    -3.7120 hc         1 UNL       0.050450
@<TRIPOS>BOND
     1     1     2 1   
     2     1    26 1   
     3     1    27 1   
     4     1    28 1   
     5     2     3 1   
     6     2    29 1   
     7     2    30 1   
     8     3     4 1   
     9     3    12 1   
    10     3    19 1   
    11     4     5 1   
    12     4    31 1   
    13     4    32 1   
    14     5     6 1   
    15     5    33 1   
    16     5    34 1   
    17     6     7 1   
    18     6    16 1   
    19     6    18 1   
    20     7     8 1   
    21     7    35 1   
    22     7    36 1   
    23     8     9 1   
    24     8    37 1   
    25     8    38 1   
    26     9    10 1   
    27     9    14 1   
    28     9    20 1   
    29    10    11 1   
    30    10    39 1   
    31    10    40 1   
    32    11    41 1   
    33    11    42 1   
    34    11    43 1   
    35    12    13 1   
    36    12    44 1   
    37    12    45 1   
    38    13    46 1   
    39    13    47 1   
    40    13    48 1   
    41    14    15 1   
    42    14    49 1   
    43    14    50 1   
    44    15    51 1   
    45    15    52 1   
    46    15    53 1   
    47    16    17 1   
    48    16    54 1   
    49    16    55 1   
    50    17    21 1   
    51    17    56 1   
    52    18    57 1   
    53    18    58 1   
    54    18    59 1   
    55    19    60 1   
    56    19    61 1   
    57    19    62 1   
    58    20    63 1   
    59    20    64 1   
    60    20    65 1   
    61    21    22 1   
    62    21    66 1   
    63    21    67 1   
    64    22    23 1   
    65    22    68 1   
    66    22    69 1   
    67    23    24 1   
    68    23    70 1   
    69    23    71 1   
    70    24    25 1   
    71    24    72 1   
    72    24    73 1   
    73    25    17 1   
    74    25    74 1   
    75    25    75 1   
@<TRIPOS>SUBSTRUCTURE
     1 UNL         1 TEMP              0 ****  ****    0 ROOT
