@<TRIPOS>MOLECULE
DETA_phenol.sdf
   70    70     1     0     0
SMALL
bcc


@<TRIPOS>ATOM
      1 C            1.0670     4.5880    -0.1370 c3         1 UNL      -0.134100
      2 C1           0.7870     3.1920    -0.6790 c3         1 UNL       0.114550
      3 N            1.2750     2.0610     0.2590 n4         1 UNL      -0.612300
      4 C2           0.5870     2.0490     1.6580 c3         1 UNL       0.094300
      5 C3          -0.9990     1.9130     1.7050 c3         1 UNL       0.086300
      6 N1          -1.6110     2.1250     3.1570 n4         1 UNL      -0.619800
      7 C4          -1.4030     3.6040     3.6920 c3         1 UNL       0.086300
      8 C5          -1.8160     4.8480     2.7710 c3         1 UNL       0.094300
      9 N2          -3.3240     5.2030     2.5770 n4         1 UNL      -0.612300
     10 C6          -4.0690     5.2400     3.9540 c3         1 UNL       0.114550
     11 C7          -3.5310     6.3190     4.8930 c3         1 UNL      -0.134100
     12 C8           1.0510     0.6680    -0.4180 c3         1 UNL       0.114550
     13 C9           1.9040     0.4190    -1.6530 c3         1 UNL      -0.134100
     14 C10         -3.4650     6.6420     1.9040 c3         1 UNL       0.114550
     15 C11         -4.9320     7.0040     1.6430 c3         1 UNL      -0.134100
     16 C12         -3.1200     1.7250     3.3870 c3         1 UNL       0.216100
     17 C13         -3.6790     0.4390     2.8520 ca         1 UNL      -0.287300
     18 C14         -0.8750     1.1230     4.1140 c3         1 UNL       0.078100
     19 C15          2.8130     2.2340     0.4840 c3         1 UNL       0.080600
     20 C16         -3.9910     4.2770     1.5390 c3         1 UNL       0.080600
     21 C17         -3.8430    -0.6570     3.7230 ca         1 UNL      -0.054000
     22 C18         -4.5230    -1.8040     3.3150 ca         1 UNL      -0.185500
     23 C19         -5.0540    -1.8700     2.0330 ca         1 UNL       0.231100
     24 C20         -4.9090    -0.8040     1.1560 ca         1 UNL      -0.185500
     25 C21         -4.2220     0.3530     1.5610 ca         1 UNL      -0.054000
     26 O           -5.7500    -2.9580     1.6080 oh         1 UNL      -0.438100
     27 H            0.7150     4.7280     0.8850 hc         1 UNL       0.085617
     28 H1           0.5640     5.3330    -0.7630 hc         1 UNL       0.085617
     29 H2           2.1360     4.8220    -0.1650 hc         1 UNL       0.085617
     30 H3          -0.2860     3.0400    -0.8260 hx         1 UNL       0.103575
     31 H4           1.2890     3.0800    -1.6430 hx         1 UNL       0.103575
     32 H5           1.0410     1.2110     2.1970 hx         1 UNL       0.109700
     33 H6           0.9000     2.9700     2.1570 hx         1 UNL       0.109700
     34 H7          -1.4630     2.6600     1.0620 hx         1 UNL       0.114450
     35 H8          -1.3040     0.9170     1.3740 hx         1 UNL       0.114450
     36 H9          -1.8780     3.6510     4.6770 hx         1 UNL       0.114450
     37 H10         -0.3240     3.6850     3.8640 hx         1 UNL       0.114450
     38 H11         -1.3590     5.7390     3.2190 hx         1 UNL       0.109700
     39 H12         -1.3890     4.7510     1.7700 hx         1 UNL       0.109700
     40 H13         -5.1350     5.3760     3.7600 hx         1 UNL       0.103575
     41 H14         -3.9430     4.2590     4.4130 hx         1 UNL       0.103575
     42 H15         -3.7630     7.3270     4.5380 hc         1 UNL       0.085617
     43 H16         -3.9990     6.2200     5.8780 hc         1 UNL       0.085617
     44 H17         -2.4500     6.2510     5.0470 hc         1 UNL       0.085617
     45 H18          1.2790    -0.0900     0.3410 hx         1 UNL       0.103575
     46 H19         -0.0130     0.6140    -0.6650 hx         1 UNL       0.103575
     47 H20          2.9500     0.2360    -1.3880 hc         1 UNL       0.085617
     48 H21          1.5470    -0.4810    -2.1640 hc         1 UNL       0.085617
     49 H22          1.8710     1.2340    -2.3780 hc         1 UNL       0.085617
     50 H23         -2.9710     7.3700     2.5510 hx         1 UNL       0.103575
     51 H24         -2.9050     6.5920     0.9630 hx         1 UNL       0.103575
     52 H25         -5.4880     7.1620     2.5710 hc         1 UNL       0.085617
     53 H26         -4.9940     7.9260     1.0600 hc         1 UNL       0.085617
     54 H27         -5.4710     6.2440     1.0690 hc         1 UNL       0.085617
     55 H28         -3.2750     1.7600     4.4740 hx         1 UNL       0.094700
     56 H29         -3.7480     2.5320     3.0460 hx         1 UNL       0.094700
     57 H30         -0.9520     0.1270     3.6670 hx         1 UNL       0.113700
     58 H31          0.1670     1.4320     4.2060 hx         1 UNL       0.113700
     59 H32         -1.3560     1.1500     5.0940 hx         1 UNL       0.113700
     60 H33          3.2960     2.3700    -0.4880 hx         1 UNL       0.114200
     61 H34          2.9730     3.1160     1.1090 hx         1 UNL       0.114200
     62 H35          3.1860     1.3410     0.9930 hx         1 UNL       0.114200
     63 H36         -3.9980     4.7510     0.5540 hx         1 UNL       0.114200
     64 H37         -3.3820     3.3960     1.3970 hx         1 UNL       0.114200
     65 H38         -5.0020     4.0270     1.8710 hx         1 UNL       0.114200
     66 H39         -3.5060    -0.6170     4.7580 ha         1 UNL       0.134000
     67 H40         -4.6690    -2.6260     4.0150 ha         1 UNL       0.188000
     68 H41         -5.3700    -0.8570     0.1740 ha         1 UNL       0.188000
     69 H42         -4.1970     1.1850     0.8630 ha         1 UNL       0.134000
     70 H43         -5.8710    -3.5970     2.3290 ho         1 UNL       0.467000
@<TRIPOS>BOND
     1     1     2 1   
     2     1    27 1   
     3     1    28 1   
     4     1    29 1   
     5     2     3 1   
     6     2    30 1   
     7     2    31 1   
     8     3     4 1   
     9     3    12 1   
    10     3    19 1   
    11     4     5 1   
    12     4    32 1   
    13     4    33 1   
    14     5     6 1   
    15     5    34 1   
    16     5    35 1   
    17     6     7 1   
    18     6    16 1   
    19     6    18 1   
    20     7     8 1   
    21     7    36 1   
    22     7    37 1   
    23     8     9 1   
    24     8    38 1   
    25     8    39 1   
    26     9    10 1   
    27     9    14 1   
    28     9    20 1   
    29    10    11 1   
    30    10    40 1   
    31    10    41 1   
    32    11    42 1   
    33    11    43 1   
    34    11    44 1   
    35    12    13 1   
    36    12    45 1   
    37    12    46 1   
    38    13    47 1   
    39    13    48 1   
    40    13    49 1   
    41    14    15 1   
    42    14    50 1   
    43    14    51 1   
    44    15    52 1   
    45    15    53 1   
    46    15    54 1   
    47    16    17 1   
    48    16    55 1   
    49    16    56 1   
    50    17    21 ar  
    51    18    57 1   
    52    18    58 1   
    53    18    59 1   
    54    19    60 1   
    55    19    61 1   
    56    19    62 1   
    57    20    63 1   
    58    20    64 1   
    59    20    65 1   
    60    21    22 ar  
    61    21    66 1   
    62    22    23 ar  
    63    22    67 1   
    64    23    24 ar  
    65    23    26 1   
    66    24    25 ar  
    67    24    68 1   
    68    25    17 ar  
    69    25    69 1   
    70    26    70 1   
@<TRIPOS>SUBSTRUCTURE
     1 UNL         1 TEMP              0 ****  ****    0 ROOT
