@<TRIPOS>MOLECULE
DETA_nitroBenzene.sdf
   71    71     1     0     0
SMALL
bcc


@<TRIPOS>ATOM
      1 C            1.0750    -4.3950    -1.1320 c3         1 UNL      -0.135100
      2 C1           0.8230    -3.2260    -0.1870 c3         1 UNL       0.114800
      3 N            1.3230    -1.8710    -0.7470 n4         1 UNL      -0.613300
      4 C2           0.6250    -1.4350    -2.0750 c3         1 UNL       0.093800
      5 C3          -0.9600    -1.2500    -2.0470 c3         1 UNL       0.086800
      6 N1          -1.6170    -0.9820    -3.4730 n4         1 UNL      -0.609800
      7 C4          -1.4050    -2.2170    -4.4540 c3         1 UNL       0.086800
      8 C5          -1.8200    -3.6950    -3.9700 c3         1 UNL       0.093800
      9 N2          -3.3320    -4.0840    -3.8740 n4         1 UNL      -0.613300
     10 C6          -4.0780    -3.7150    -5.2010 c3         1 UNL       0.114800
     11 C7          -3.5700    -4.4940    -6.4130 c3         1 UNL      -0.135100
     12 C8           1.1290    -0.7390     0.3170 c3         1 UNL       0.114800
     13 C9           2.0060    -0.8700     1.5540 c3         1 UNL      -0.135100
     14 C10         -3.4880    -5.6580    -3.6490 c3         1 UNL       0.114800
     15 C11         -4.9570    -6.0580    -3.4780 c3         1 UNL      -0.135100
     16 C12         -3.1380    -0.5440    -3.5660 c3         1 UNL       0.187100
     17 C13         -3.7510     0.4410    -2.6060 ca         1 UNL      -0.186300
     18 C14         -0.9300     0.3020    -4.0680 c3         1 UNL       0.076100
     19 C15          2.8570    -1.9870    -1.0280 c3         1 UNL       0.079600
     20 C16         -3.9920    -3.5000    -2.6060 c3         1 UNL       0.079600
     21 C17         -4.4150     1.5710    -3.1360 ca         1 UNL      -0.117000
     22 C18         -5.1580     2.4280    -2.3270 ca         1 UNL      -0.057000
     23 C19         -5.2510     2.1720    -0.9500 ca         1 UNL      -0.120200
     24 C20         -4.5930     1.0560    -0.4040 ca         1 UNL      -0.057000
     25 C21         -3.8670     0.1960    -1.2320 ca         1 UNL      -0.117000
     26 N3          -6.0630     3.0330    -0.0860 no         1 UNL       0.313200
     27 O           -6.7390     3.9150    -0.6280 o          1 UNL      -0.140000
     28 O1          -6.0220     2.8050     1.1290 o          1 UNL      -0.140000
     29 H            0.7040    -4.2150    -2.1420 hc         1 UNL       0.086700
     30 H1           0.5710    -5.2910    -0.7540 hc         1 UNL       0.086700
     31 H2           2.1410    -4.6360    -1.1990 hc         1 UNL       0.086700
     32 H3          -0.2460    -3.1110     0.0110 hx         1 UNL       0.103700
     33 H4           1.3340    -3.4160     0.7590 hx         1 UNL       0.103700
     34 H5           1.1010    -0.4870    -2.3430 hx         1 UNL       0.110700
     35 H6           0.9090    -2.1750    -2.8270 hx         1 UNL       0.110700
     36 H7          -1.4360    -2.1480    -1.6550 hx         1 UNL       0.116950
     37 H8          -1.2150    -0.3960    -1.4180 hx         1 UNL       0.116950
     38 H9          -1.8810    -1.9520    -5.4020 hx         1 UNL       0.116950
     39 H10         -0.3250    -2.2300    -4.6410 hx         1 UNL       0.116950
     40 H11         -1.3790    -4.4020    -4.6820 hx         1 UNL       0.110700
     41 H12         -1.3840    -3.9220    -2.9940 hx         1 UNL       0.110700
     42 H13         -5.1460    -3.8780    -5.0440 hx         1 UNL       0.103700
     43 H14         -3.9310    -2.6470    -5.3670 hx         1 UNL       0.103700
     44 H15         -3.8360    -5.5540    -6.3640 hc         1 UNL       0.086700
     45 H16         -4.0300    -4.1010    -7.3250 hc         1 UNL       0.086700
     46 H17         -2.4870    -4.4170    -6.5460 hc         1 UNL       0.086700
     47 H18          1.3550     0.2060    -0.1900 hx         1 UNL       0.103700
     48 H19          0.0690    -0.7510     0.5880 hx         1 UNL       0.103700
     49 H20          3.0400    -0.5800     1.3400 hc         1 UNL       0.086700
     50 H21          1.6410    -0.1890     2.3290 hc         1 UNL       0.086700
     51 H22          2.0120    -1.8740     1.9820 hc         1 UNL       0.086700
     52 H23         -3.0180    -6.1740    -4.4880 hx         1 UNL       0.103700
     53 H24         -2.9200    -5.8930    -2.7430 hx         1 UNL       0.103700
     54 H25         -5.5370    -5.9130    -4.3930 hc         1 UNL       0.086700
     55 H26         -5.0370    -7.1140    -3.2110 hc         1 UNL       0.086700
     56 H27         -5.4770    -5.5120    -2.6800 hc         1 UNL       0.086700
     57 H28         -3.2630    -0.1760    -4.5940 hx         1 UNL       0.105700
     58 H29         -3.7560    -1.4260    -3.5700 hx         1 UNL       0.105700
     59 H30         -1.2350     1.1530    -3.4450 hx         1 UNL       0.117367
     60 H31          0.1490     0.1810    -4.0420 hx         1 UNL       0.117367
     61 H32         -1.2650     0.4280    -5.0990 hx         1 UNL       0.117367
     62 H33          3.3450    -2.4020    -0.1420 hx         1 UNL       0.115367
     63 H34          3.0030    -2.6510    -1.8840 hx         1 UNL       0.115367
     64 H35          3.2360    -0.9880    -1.2610 hx         1 UNL       0.115367
     65 H36         -3.9970    -4.2410    -1.8040 hx         1 UNL       0.115367
     66 H37         -3.3700    -2.7020    -2.2160 hx         1 UNL       0.115367
     67 H38         -5.0000    -3.1570    -2.8460 hx         1 UNL       0.115367
     68 H39         -4.4080     1.7860    -4.2140 ha         1 UNL       0.146000
     69 H40         -5.6910     3.2750    -2.7680 ha         1 UNL       0.212500
     70 H41         -4.6810     0.8390     0.6600 ha         1 UNL       0.212500
     71 H42         -3.4510    -0.6970    -0.7660 ha         1 UNL       0.146000
@<TRIPOS>BOND
     1     1     2 1   
     2     1    29 1   
     3     1    30 1   
     4     1    31 1   
     5     2     3 1   
     6     2    32 1   
     7     2    33 1   
     8     3     4 1   
     9     3    12 1   
    10     3    19 1   
    11     4     5 1   
    12     4    34 1   
    13     4    35 1   
    14     5     6 1   
    15     5    36 1   
    16     5    37 1   
    17     6     7 1   
    18     6    16 1   
    19     6    18 1   
    20     7     8 1   
    21     7    38 1   
    22     7    39 1   
    23     8     9 1   
    24     8    40 1   
    25     8    41 1   
    26     9    10 1   
    27     9    14 1   
    28     9    20 1   
    29    10    11 1   
    30    10    42 1   
    31    10    43 1   
    32    11    44 1   
    33    11    45 1   
    34    11    46 1   
    35    12    13 1   
    36    12    47 1   
    37    12    48 1   
    38    13    49 1   
    39    13    50 1   
    40    13    51 1   
    41    14    15 1   
    42    14    52 1   
    43    14    53 1   
    44    15    54 1   
    45    15    55 1   
    46    15    56 1   
    47    16    17 1   
    48    16    57 1   
    49    16    58 1   
    50    17    21 ar  
    51    18    59 1   
    52    18    60 1   
    53    18    61 1   
    54    19    62 1   
    55    19    63 1   
    56    19    64 1   
    57    20    65 1   
    58    20    66 1   
    59    20    67 1   
    60    21    22 ar  
    61    21    68 1   
    62    22    23 ar  
    63    22    69 1   
    64    23    24 ar  
    65    23    26 1   
    66    24    25 ar  
    67    24    70 1   
    68    25    17 ar  
    69    25    71 1   
    70    26    27 1   
    71    26    28 1   
@<TRIPOS>SUBSTRUCTURE
     1 UNL         1 TEMP              0 ****  ****    0 ROOT
