@<TRIPOS>MOLECULE
DETA_hexane.sdf
   77    76     1     0     0
SMALL
bcc


@<TRIPOS>ATOM
      1 C            1.0930    -4.6230    -0.6810 c3         1 UNL      -0.134850
      2 C1           0.8970    -3.3000     0.0460 c3         1 UNL       0.114550
      3 N            1.4460    -2.0830    -0.7400 n4         1 UNL      -0.613300
      4 C2           0.7360    -1.8310    -2.1100 c3         1 UNL       0.093300
      5 C3          -0.8350    -1.5580    -2.1040 c3         1 UNL       0.088300
      6 N1          -1.5000    -1.5000    -3.5590 n4         1 UNL      -0.605800
      7 C4          -1.3680    -2.8930    -4.3250 c3         1 UNL       0.088300
      8 C5          -1.8400    -4.2430    -3.6150 c3         1 UNL       0.093300
      9 N2          -3.3610    -4.5560    -3.4280 n4         1 UNL      -0.613300
     10 C6          -4.1580    -4.3240    -4.7580 c3         1 UNL       0.114550
     11 C7          -3.7390    -5.2600    -5.8870 c3         1 UNL      -0.134850
     12 C8           1.3350    -0.7880     0.1350 c3         1 UNL       0.114550
     13 C9           2.2500    -0.7700     1.3540 c3         1 UNL      -0.134850
     14 C10         -3.5340    -6.0860    -3.0130 c3         1 UNL       0.114550
     15 C11         -5.0010    -6.4510    -2.7660 c3         1 UNL      -0.134850
     16 C12         -3.0010    -1.0280    -3.6750 c3         1 UNL       0.108800
     17 C13         -3.4510     0.1010    -2.7480 c3         1 UNL      -0.107400
     18 C14         -0.7530    -0.4000    -4.4070 c3         1 UNL       0.076100
     19 C15          2.9640    -2.3200    -1.0340 c3         1 UNL       0.079600
     20 C16         -3.9610    -3.7910    -2.2270 c3         1 UNL       0.079600
     21 C17         -4.9730     0.3230    -2.8940 c3         1 UNL      -0.082400
     22 C18         -5.4170     1.6200    -2.2160 c3         1 UNL      -0.080400
     23 C19         -6.9280     1.8540    -2.3170 c3         1 UNL      -0.081400
     24 C20         -7.3160     3.1680    -1.6330 c3         1 UNL      -0.078400
     25 C21         -8.8100     3.4410    -1.7180 c3         1 UNL      -0.099100
     26 H            0.7120    -4.6080    -1.7030 hc         1 UNL       0.086700
     27 H1           0.5630    -5.4180    -0.1450 hc         1 UNL       0.086700
     28 H2           2.1480    -4.9120    -0.7120 hc         1 UNL       0.086700
     29 H3          -0.1640    -3.1060     0.2250 hx         1 UNL       0.103950
     30 H4           1.4090    -3.3450     1.0090 hx         1 UNL       0.103950
     31 H5           1.2590    -0.9700    -2.5320 hx         1 UNL       0.110700
     32 H6           0.9650    -2.7000    -2.7340 hx         1 UNL       0.110700
     33 H7          -1.3520    -2.3540    -1.5670 hx         1 UNL       0.117450
     34 H8          -1.0460    -0.5990    -1.6260 hx         1 UNL       0.117450
     35 H9          -1.8710    -2.7600    -5.2900 hx         1 UNL       0.117450
     36 H10         -0.2970    -2.9890    -4.5360 hx         1 UNL       0.117450
     37 H11         -1.4480    -5.0660    -4.2250 hx         1 UNL       0.110700
     38 H12         -1.3850    -4.3400    -2.6270 hx         1 UNL       0.110700
     39 H13         -5.2260    -4.4250    -4.5340 hx         1 UNL       0.103950
     40 H14         -3.9840    -3.2910    -5.0630 hx         1 UNL       0.103950
     41 H15         -4.0300    -6.2960    -5.6940 hc         1 UNL       0.086700
     42 H16         -4.2390    -4.9650    -6.8150 hc         1 UNL       0.086700
     43 H17         -2.6630    -5.2310    -6.0800 hc         1 UNL       0.086700
     44 H18          1.5860     0.0540    -0.5200 hx         1 UNL       0.103950
     45 H19          0.2870    -0.7080     0.4320 hx         1 UNL       0.103950
     46 H20          3.2810    -0.5310     1.0720 hc         1 UNL       0.086700
     47 H21          1.9200     0.0210     2.0390 hc         1 UNL       0.086700
     48 H22          2.2560    -1.7020     1.9170 hc         1 UNL       0.086700
     49 H23         -3.0830    -6.7050    -3.7910 hx         1 UNL       0.103950
     50 H24         -2.9450    -6.2210    -2.0950 hx         1 UNL       0.103950
     51 H25         -5.5910    -6.4270    -3.6860 hc         1 UNL       0.086700
     52 H26         -5.0720    -7.4640    -2.3600 hc         1 UNL       0.086700
     53 H27         -5.4960    -5.7970    -2.0410 hc         1 UNL       0.086700
     54 H28         -3.1520    -0.7360    -4.7250 hx         1 UNL       0.102200
     55 H29         -3.6340    -1.8890    -3.5430 hx         1 UNL       0.102200
     56 H30         -3.2350    -0.1370    -1.7040 hc         1 UNL       0.070700
     57 H31         -2.9300     1.0300    -3.0010 hc         1 UNL       0.070700
     58 H32         -1.1370     0.5820    -4.1080 hx         1 UNL       0.118700
     59 H33          0.3130    -0.4480    -4.2170 hx         1 UNL       0.118700
     60 H34         -0.9560    -0.5890    -5.4620 hx         1 UNL       0.118700
     61 H35          3.4580    -2.6240    -0.1060 hx         1 UNL       0.115367
     62 H36          3.0500    -3.1100    -1.7840 hx         1 UNL       0.115367
     63 H37          3.3840    -1.3890    -1.4230 hx         1 UNL       0.115367
     64 H38         -3.9570    -4.4270    -1.3360 hx         1 UNL       0.115367
     65 H39         -3.3200    -2.9540    -1.9730 hx         1 UNL       0.115367
     66 H40         -4.9710    -3.4610    -2.4760 hx         1 UNL       0.115367
     67 H41         -5.2470     0.3620    -3.9560 hc         1 UNL       0.059200
     68 H42         -5.5090    -0.5310    -2.4580 hc         1 UNL       0.059200
     69 H43         -5.1160     1.6130    -1.1510 hc         1 UNL       0.052200
     70 H44         -4.8940     2.4640    -2.6820 hc         1 UNL       0.052200
     71 H45         -7.2340     1.8830    -3.3700 hc         1 UNL       0.049200
     72 H46         -7.4660     1.0220    -1.8470 hc         1 UNL       0.049200
     73 H47         -7.0180     3.1380    -0.5790 hc         1 UNL       0.045200
     74 H48         -6.7760     4.0020    -2.0970 hc         1 UNL       0.045200
     75 H49         -9.3830     2.6400    -1.2400 hc         1 UNL       0.048033
     76 H50         -9.0520     4.3800    -1.2100 hc         1 UNL       0.048033
     77 H51         -9.1350     3.5260    -2.7590 hc         1 UNL       0.048033
@<TRIPOS>BOND
     1     1     2 1   
     2     1    26 1   
     3     1    27 1   
     4     1    28 1   
     5     2     3 1   
     6     2    29 1   
     7     2    30 1   
     8     3     4 1   
     9     3    12 1   
    10     3    19 1   
    11     4     5 1   
    12     4    31 1   
    13     4    32 1   
    14     5     6 1   
    15     5    33 1   
    16     5    34 1   
    17     6     7 1   
    18     6    16 1   
    19     6    18 1   
    20     7     8 1   
    21     7    35 1   
    22     7    36 1   
    23     8     9 1   
    24     8    37 1   
    25     8    38 1   
    26     9    10 1   
    27     9    14 1   
    28     9    20 1   
    29    10    11 1   
    30    10    39 1   
    31    10    40 1   
    32    11    41 1   
    33    11    42 1   
    34    11    43 1   
    35    12    13 1   
    36    12    44 1   
    37    12    45 1   
    38    13    46 1   
    39    13    47 1   
    40    13    48 1   
    41    14    15 1   
    42    14    49 1   
    43    14    50 1   
    44    15    51 1   
    45    15    52 1   
    46    15    53 1   
    47    16    17 1   
    48    16    54 1   
    49    16    55 1   
    50    17    21 1   
    51    17    56 1   
    52    17    57 1   
    53    18    58 1   
    54    18    59 1   
    55    18    60 1   
    56    19    61 1   
    57    19    62 1   
    58    19    63 1   
    59    20    64 1   
    60    20    65 1   
    61    20    66 1   
    62    21    22 1   
    63    21    67 1   
    64    21    68 1   
    65    22    23 1   
    66    22    69 1   
    67    22    70 1   
    68    23    24 1   
    69    23    71 1   
    70    23    72 1   
    71    24    25 1   
    72    24    73 1   
    73    24    74 1   
    74    25    75 1   
    75    25    76 1   
    76    25    77 1   
@<TRIPOS>SUBSTRUCTURE
     1 UNL         1 TEMP              0 ****  ****    0 ROOT
