@<TRIPOS>MOLECULE
DETA_benzene.sdf
   69    69     1     0     0
SMALL
bcc


@<TRIPOS>ATOM
      1 C            1.0260    -4.3990     1.1700 c3         1 UNL      -0.134600
      2 C1           0.7910    -2.9000     1.3440 c3         1 UNL       0.114550
      3 N            1.2840    -2.0660     0.1350 n4         1 UNL      -0.612300
      4 C2           0.5730    -2.3970    -1.2130 c3         1 UNL       0.093800
      5 C3          -1.0110    -2.2540    -1.2660 c3         1 UNL       0.086300
      6 N1          -1.6530    -2.7890    -2.6230 n4         1 UNL      -0.613800
      7 C4          -1.4820    -4.3540    -2.8020 c3         1 UNL       0.086300
      8 C5          -1.9040    -5.3460    -1.6180 c3         1 UNL       0.093800
      9 N2          -3.4150    -5.6190    -1.3340 n4         1 UNL      -0.612300
     10 C6          -4.1790    -5.9540    -2.6590 c3         1 UNL       0.114550
     11 C7          -3.6880    -7.2470    -3.3200 c3         1 UNL      -0.134600
     12 C8           1.1070    -0.5370     0.4340 c3         1 UNL       0.114550
     13 C9           1.9840    -0.0070     1.5590 c3         1 UNL      -0.134600
     14 C10         -3.5650    -6.8670    -0.3470 c3         1 UNL       0.114550
     15 C11         -5.0290    -7.1300     0.0150 c3         1 UNL      -0.134600
     16 C12         -3.1560    -2.4140    -2.9110 c3         1 UNL       0.199100
     17 C13         -3.6490    -1.0120    -2.7140 ca         1 UNL      -0.224300
     18 C14         -0.9170    -2.0580    -3.8000 c3         1 UNL       0.077100
     19 C15          2.8150    -2.3270    -0.0570 c3         1 UNL       0.080100
     20 C16         -4.0530    -4.4700    -0.5300 c3         1 UNL       0.080100
     21 C17         -3.8170    -0.1810    -3.8350 ca         1 UNL      -0.105500
     22 C18         -4.4230     1.0690    -3.7130 ca         1 UNL      -0.109000
     23 C19         -4.8750     1.5040    -2.4730 ca         1 UNL      -0.044000
     24 C20         -4.7170     0.6940    -1.3510 ca         1 UNL      -0.109000
     25 C21         -4.1060    -0.5580    -1.4660 ca         1 UNL      -0.105500
     26 H            0.6430    -4.7860     0.2270 hc         1 UNL       0.086033
     27 H1           0.5270    -4.9430     1.9780 hc         1 UNL       0.086033
     28 H2           2.0920    -4.6460     1.2340 hc         1 UNL       0.086033
     29 H3          -0.2750    -2.6890     1.4610 hx         1 UNL       0.103575
     30 H4           1.3170    -2.5610     2.2310 hx         1 UNL       0.103575
     31 H5           1.0260    -1.7380    -1.9530 hx         1 UNL       0.110450
     32 H6           0.8620    -3.4220    -1.4640 hx         1 UNL       0.110450
     33 H7          -1.4740    -2.8220    -0.4640 hx         1 UNL       0.115700
     34 H8          -1.2980    -1.2040    -1.1760 hx         1 UNL       0.115700
     35 H9          -1.9650    -4.6160    -3.7450 hx         1 UNL       0.115700
     36 H10         -0.4050    -4.4970    -2.9540 hx         1 UNL       0.115700
     37 H11         -1.4700    -6.3260    -1.8590 hx         1 UNL       0.110450
     38 H12         -1.4600    -5.0360    -0.6700 hx         1 UNL       0.110450
     39 H13         -5.2440    -6.0130    -2.4300 hx         1 UNL       0.103575
     40 H14         -4.0320    -5.1150    -3.3340 hx         1 UNL       0.103575
     41 H15         -3.9650    -8.1330    -2.7470 hc         1 UNL       0.086033
     42 H16         -4.1540    -7.3580    -4.3000 hc         1 UNL       0.086033
     43 H17         -2.6000    -7.2550    -3.4810 hc         1 UNL       0.086033
     44 H18          1.3470    -0.0090    -0.4950 hx         1 UNL       0.103575
     45 H19          0.0500    -0.3930     0.6650 hx         1 UNL       0.103575
     46 H20          3.0350     0.0640     1.2540 hc         1 UNL       0.086033
     47 H21          1.6630     1.0120     1.8130 hc         1 UNL       0.086033
     48 H22          1.9270    -0.5970     2.4730 hc         1 UNL       0.086033
     49 H23         -3.0990    -7.7340    -0.8220 hx         1 UNL       0.103575
     50 H24         -2.9800    -6.6190     0.5450 hx         1 UNL       0.103575
     51 H25         -5.6190    -7.4450    -0.8490 hc         1 UNL       0.086033
     52 H26         -5.0920    -7.9220     0.7630 hc         1 UNL       0.086033
     53 H27         -5.5330    -6.2560     0.4480 hc         1 UNL       0.086033
     54 H28         -3.3500    -2.7250    -3.9470 hx         1 UNL       0.099700
     55 H29         -3.7960    -3.0750    -2.3500 hx         1 UNL       0.099700
     56 H30         -0.9460    -0.9840    -3.5920 hx         1 UNL       0.115700
     57 H31          0.1100    -2.4190    -3.8490 hx         1 UNL       0.115700
     58 H32         -1.4340    -2.2880    -4.7380 hx         1 UNL       0.115700
     59 H33          3.3140    -2.2120     0.9090 hx         1 UNL       0.114700
     60 H34          2.9440    -3.3460    -0.4290 hx         1 UNL       0.114700
     61 H35          3.1910    -1.6110    -0.7910 hx         1 UNL       0.114700
     62 H36         -4.0730    -4.7140     0.5370 hx         1 UNL       0.114700
     63 H37         -3.4110    -3.5980    -0.5830 hx         1 UNL       0.114700
     64 H38         -5.0550    -4.2720    -0.9140 hx         1 UNL       0.114700
     65 H39         -3.5410    -0.5090    -4.8370 ha         1 UNL       0.133000
     66 H40         -4.5790     1.6940    -4.5920 ha         1 UNL       0.181500
     67 H41         -5.3780     2.4670    -2.3870 ha         1 UNL       0.189000
     68 H42         -5.1120     1.0360    -0.3940 ha         1 UNL       0.181500
     69 H43         -4.0630    -1.1770    -0.5740 ha         1 UNL       0.133000
@<TRIPOS>BOND
     1     1     2 1   
     2     1    26 1   
     3     1    27 1   
     4     1    28 1   
     5     2     3 1   
     6     2    29 1   
     7     2    30 1   
     8     3     4 1   
     9     3    12 1   
    10     3    19 1   
    11     4     5 1   
    12     4    31 1   
    13     4    32 1   
    14     5     6 1   
    15     5    33 1   
    16     5    34 1   
    17     6     7 1   
    18     6    16 1   
    19     6    18 1   
    20     7     8 1   
    21     7    35 1   
    22     7    36 1   
    23     8     9 1   
    24     8    37 1   
    25     8    38 1   
    26     9    10 1   
    27     9    14 1   
    28     9    20 1   
    29    10    11 1   
    30    10    39 1   
    31    10    40 1   
    32    11    41 1   
    33    11    42 1   
    34    11    43 1   
    35    12    13 1   
    36    12    44 1   
    37    12    45 1   
    38    13    46 1   
    39    13    47 1   
    40    13    48 1   
    41    14    15 1   
    42    14    49 1   
    43    14    50 1   
    44    15    51 1   
    45    15    52 1   
    46    15    53 1   
    47    16    17 1   
    48    16    54 1   
    49    16    55 1   
    50    17    21 ar  
    51    18    56 1   
    52    18    57 1   
    53    18    58 1   
    54    19    59 1   
    55    19    60 1   
    56    19    61 1   
    57    20    62 1   
    58    20    63 1   
    59    20    64 1   
    60    21    22 ar  
    61    21    65 1   
    62    22    23 ar  
    63    22    66 1   
    64    23    24 ar  
    65    23    67 1   
    66    24    25 ar  
    67    24    68 1   
    68    25    17 ar  
    69    25    69 1   
@<TRIPOS>SUBSTRUCTURE
     1 UNL         1 TEMP              0 ****  ****    0 ROOT
