@<TRIPOS>MOLECULE
DETA_isoPentane.sdf
   83    82     1     0     0
SMALL
bcc


@<TRIPOS>ATOM
      1 C            3.2010     3.2520     1.9440 c3         1 UNL      -0.135850
      2 C1           2.8210     2.1260     0.9950 c3         1 UNL       0.117550
      3 N            1.2650     1.9070     0.8430 n4         1 UNL      -0.612800
      4 C2           0.6510     1.5650     2.2410 c3         1 UNL       0.092300
      5 C3          -0.8920     1.2980     2.2480 c3         1 UNL       0.086800
      6 N1          -1.5410     1.0350     3.6470 n4         1 UNL      -0.604800
      7 C4          -1.3430     2.2160     4.6840 c3         1 UNL       0.086800
      8 C5          -1.9130     3.6260     4.2620 c3         1 UNL       0.092300
      9 N2          -1.5740     4.8120     5.2340 n4         1 UNL      -0.612800
     10 C6          -0.0560     4.9560     5.5370 c3         1 UNL       0.117550
     11 C7           0.7650     5.2740     4.2930 c3         1 UNL      -0.135850
     12 C8           0.5840     3.1430     0.1960 c3         1 UNL       0.117550
     13 C9           1.0050     3.4330    -1.2370 c3         1 UNL      -0.135850
     14 C10         -2.1270     6.1490     4.5990 c3         1 UNL       0.117550
     15 C11         -1.9050     7.3740     5.4810 c3         1 UNL      -0.135850
     16 C12         -3.0880     0.7760     3.4840 c3         1 UNL       0.107800
     17 C13         -3.4290    -0.4660     2.6480 c3         1 UNL      -0.106400
     18 C14         -0.9400    -0.2530     4.2870 c3         1 UNL       0.076100
     19 C15          1.1250     0.6820    -0.0990 c3         1 UNL       0.075600
     20 C16         -2.3340     4.6130     6.5750 c3         1 UNL       0.075600
     21 C17         -4.9430    -0.6980     2.5400 c3         1 UNL      -0.051700
     22 C18         -5.7530     0.4600     1.9090 c3         1 UNL      -0.082400
     23 C19         -5.5210     0.9770     0.4540 c3         1 UNL      -0.055000
     24 C20         -5.7420    -0.1270    -0.5890 c3         1 UNL      -0.089433
     25 C21         -6.5710     2.0900     0.2140 c3         1 UNL      -0.089433
     26 C22         -4.1460     1.6210     0.2090 c3         1 UNL      -0.089433
     27 C23         -5.2340    -2.0720     1.9290 c3         1 UNL      -0.105100
     28 H            2.7610     4.2110     1.6660 hc         1 UNL       0.087700
     29 H1           4.2900     3.3830     1.9320 hc         1 UNL       0.087700
     30 H2           2.9290     3.0250     2.9800 hc         1 UNL       0.087700
     31 H3           3.2280     2.3130    -0.0050 hx         1 UNL       0.103950
     32 H4           3.2330     1.1780     1.3590 hx         1 UNL       0.103950
     33 H5           1.1980     0.6920     2.6150 hx         1 UNL       0.110700
     34 H6           0.8660     2.4180     2.8820 hx         1 UNL       0.110700
     35 H7          -1.4400     2.1500     1.8430 hx         1 UNL       0.117950
     36 H8          -1.1000     0.4200     1.6340 hx         1 UNL       0.117950
     37 H9          -1.8150     1.8720     5.6100 hx         1 UNL       0.117950
     38 H10         -0.2650     2.2690     4.8480 hx         1 UNL       0.117950
     39 H11         -1.5150     3.9150     3.2840 hx         1 UNL       0.110700
     40 H12         -3.0050     3.5970     4.1930 hx         1 UNL       0.110700
     41 H13          0.0720     5.7350     6.2900 hx         1 UNL       0.103950
     42 H14          0.2680     4.0110     5.9850 hx         1 UNL       0.103950
     43 H15          0.5570     6.2780     3.9130 hc         1 UNL       0.087700
     44 H16          1.8320     5.2420     4.5360 hc         1 UNL       0.087700
     45 H17          0.5930     4.5640     3.4840 hc         1 UNL       0.087700
     46 H18         -0.4880     2.9530     0.1940 hx         1 UNL       0.103950
     47 H19          0.7740     3.9970     0.8530 hx         1 UNL       0.103950
     48 H20          0.5670     2.7020    -1.9260 hc         1 UNL       0.087700
     49 H21          0.6180     4.4130    -1.5330 hc         1 UNL       0.087700
     50 H22          2.0840     3.4480    -1.3790 hc         1 UNL       0.087700
     51 H23         -1.6440     6.2690     3.6250 hx         1 UNL       0.103950
     52 H24         -3.1990     5.9910     4.4260 hx         1 UNL       0.103950
     53 H25         -0.8450     7.5980     5.6210 hc         1 UNL       0.087700
     54 H26         -2.3540     8.2530     5.0050 hc         1 UNL       0.087700
     55 H27         -2.3700     7.2680     6.4630 hc         1 UNL       0.087700
     56 H28         -3.4930     0.6720     4.4980 hx         1 UNL       0.106200
     57 H29         -3.4940     1.6880     3.0430 hx         1 UNL       0.106200
     58 H30         -2.9970    -0.4230     1.6490 hc         1 UNL       0.072200
     59 H31         -2.9930    -1.3560     3.1160 hc         1 UNL       0.072200
     60 H32         -0.8740    -1.0240     3.5150 hx         1 UNL       0.117033
     61 H33          0.0550    -0.0140     4.6660 hx         1 UNL       0.117033
     62 H34         -1.5970    -0.5670     5.1040 hx         1 UNL       0.117033
     63 H35          1.6880     0.8760    -1.0160 hx         1 UNL       0.112700
     64 H36          1.5380    -0.1890     0.4170 hx         1 UNL       0.112700
     65 H37          0.0650     0.5400    -0.3190 hx         1 UNL       0.112700
     66 H38         -3.3490     5.0150     6.4670 hx         1 UNL       0.112700
     67 H39         -2.3800     3.5550     6.8070 hx         1 UNL       0.112700
     68 H40         -1.7950     5.1450     7.3690 hx         1 UNL       0.112700
     69 H41         -5.3140    -0.7700     3.5740 hc         1 UNL       0.051700
     70 H42         -6.8110     0.1620     1.9820 hc         1 UNL       0.051200
     71 H43         -5.6710     1.3220     2.5860 hc         1 UNL       0.051200
     72 H44         -6.6480    -0.7020    -0.3750 hc         1 UNL       0.038811
     73 H45         -5.8440     0.2930    -1.5950 hc         1 UNL       0.038811
     74 H46         -4.8930    -0.8160    -0.6250 hc         1 UNL       0.038811
     75 H47         -6.4130     2.9290     0.9050 hc         1 UNL       0.038811
     76 H48         -6.5070     2.4870    -0.8040 hc         1 UNL       0.038811
     77 H49         -7.5890     1.7180     0.3650 hc         1 UNL       0.038811
     78 H50         -3.9000     2.3550     0.9820 hc         1 UNL       0.038811
     79 H51         -3.3410     0.8860     0.1490 hc         1 UNL       0.038811
     80 H52         -4.1310     2.1540    -0.7500 hc         1 UNL       0.038811
     81 H53         -4.8500    -2.8640     2.5840 hc         1 UNL       0.063700
     82 H54         -6.3110    -2.2380     1.8190 hc         1 UNL       0.063700
     83 H55         -4.7540    -2.2110     0.9590 hc         1 UNL       0.063700
@<TRIPOS>BOND
     1     1     2 1   
     2     1    28 1   
     3     1    29 1   
     4     1    30 1   
     5     2     3 1   
     6     2    31 1   
     7     2    32 1   
     8     3     4 1   
     9     3    12 1   
    10     3    19 1   
    11     4     5 1   
    12     4    33 1   
    13     4    34 1   
    14     5     6 1   
    15     5    35 1   
    16     5    36 1   
    17     6     7 1   
    18     6    16 1   
    19     6    18 1   
    20     7     8 1   
    21     7    37 1   
    22     7    38 1   
    23     8     9 1   
    24     8    39 1   
    25     8    40 1   
    26     9    10 1   
    27     9    14 1   
    28     9    20 1   
    29    10    11 1   
    30    10    41 1   
    31    10    42 1   
    32    11    43 1   
    33    11    44 1   
    34    11    45 1   
    35    12    13 1   
    36    12    46 1   
    37    12    47 1   
    38    13    48 1   
    39    13    49 1   
    40    13    50 1   
    41    14    15 1   
    42    14    51 1   
    43    14    52 1   
    44    15    53 1   
    45    15    54 1   
    46    15    55 1   
    47    16    17 1   
    48    16    56 1   
    49    16    57 1   
    50    17    21 1   
    51    17    58 1   
    52    17    59 1   
    53    18    60 1   
    54    18    61 1   
    55    18    62 1   
    56    19    63 1   
    57    19    64 1   
    58    19    65 1   
    59    20    66 1   
    60    20    67 1   
    61    20    68 1   
    62    21    22 1   
    63    21    27 1   
    64    21    69 1   
    65    22    23 1   
    66    22    70 1   
    67    22    71 1   
    68    23    24 1   
    69    23    25 1   
    70    23    26 1   
    71    24    72 1   
    72    24    73 1   
    73    24    74 1   
    74    25    75 1   
    75    25    76 1   
    76    25    77 1   
    77    26    78 1   
    78    26    79 1   
    79    26    80 1   
    80    27    81 1   
    81    27    82 1   
    82    27    83 1   
@<TRIPOS>SUBSTRUCTURE
     1 UNL         1 TEMP              0 ****  ****    0 ROOT
