@<TRIPOS>MOLECULE
PFBA.sdf
   13    12     1     0     0
SMALL
bcc


@<TRIPOS>ATOM
      1 C            1.0320    -0.0080     0.0670 c3         1 UNL       0.616900
      2 C1           0.5690    -0.5790    -1.2710 c3         1 UNL       0.337600
      3 C2           1.0980    -1.9590    -1.5500 c3         1 UNL       0.235600
      4 C3           0.6840    -2.9690    -0.4750 c          1 UNL       0.944600
      5 O           -0.0340    -2.5060     0.4650 o          1 UNL      -0.758300
      6 O1           1.1010    -4.1530    -0.6100 o          1 UNL      -0.758300
      7 F            2.0120    -0.6980     0.6880 f          1 UNL      -0.227633
      8 F1           0.0210     0.1990     0.9500 f          1 UNL      -0.227633
      9 F2           1.5570     1.2440    -0.1320 f          1 UNL      -0.227633
     10 F3          -0.7920    -0.5050    -1.4080 f          1 UNL      -0.224300
     11 F4           1.0310     0.2460    -2.2830 f          1 UNL      -0.224300
     12 F5           0.6610    -2.3930    -2.7760 f          1 UNL      -0.242300
     13 F6           2.4660    -1.9220    -1.6400 f          1 UNL      -0.242300
@<TRIPOS>BOND
     1     1     2 1   
     2     1     7 1   
     3     1     8 1   
     4     1     9 1   
     5     2     3 1   
     6     2    10 1   
     7     2    11 1   
     8     3     4 1   
     9     3    12 1   
    10     3    13 1   
    11     4     5 1   
    12     4     6 1   
@<TRIPOS>SUBSTRUCTURE
     1 UNL         1 TEMP              0 ****  ****    0 ROOT
