@<TRIPOS>MOLECULE
PFBS.sdf
   17    16     1     0     0
SMALL
bcc


@<TRIPOS>ATOM
      1 C            0.9800    -0.0190     0.0190 c3         1 UNL       0.363600
      2 C1           0.5370    -0.6340    -1.2940 c3         1 UNL       0.349600
      3 C2           1.1250    -1.9340    -1.7850 c3         1 UNL       0.345400
      4 S            0.8700    -3.2540    -0.5740 s6         1 UNL       1.433800
      5 O            1.7620    -2.8410     0.5130 o          1 UNL      -0.693200
      6 O1          -0.5470    -3.2000    -0.2420 o          1 UNL      -0.693200
      7 C3           2.4740     0.2740     0.1050 c3         1 UNL       0.579900
      8 F            0.5140    -0.6510     1.1230 f          1 UNL      -0.190300
      9 F1           0.3300     1.2130     0.0740 f          1 UNL      -0.190300
     10 F2          -0.8360    -0.6840    -1.3140 f          1 UNL      -0.220800
     11 F3           0.8160     0.3160    -2.2730 f          1 UNL      -0.220800
     12 F4           0.5610    -2.2270    -3.0110 f          1 UNL      -0.246300
     13 F5           2.4590    -1.7500    -2.0660 f          1 UNL      -0.246300
     14 F6           3.0840     0.3250    -1.1010 f          1 UNL      -0.225967
     15 F7           2.6820     1.5050     0.6640 f          1 UNL      -0.225967
     16 F8           3.1710    -0.5850     0.8750 f          1 UNL      -0.225967
     17 O2           1.2950    -4.4750    -1.2570 o          1 UNL      -0.693200
@<TRIPOS>BOND
     1     1     2 1   
     2     1     7 1   
     3     1     8 1   
     4     1     9 1   
     5     2     3 1   
     6     2    10 1   
     7     2    11 1   
     8     3     4 1   
     9     3    12 1   
    10     3    13 1   
    11     4     5 1   
    12     4     6 1   
    13     4    17 1   
    14     7    14 1   
    15     7    15 1   
    16     7    16 1   
@<TRIPOS>SUBSTRUCTURE
     1 UNL         1 TEMP              0 ****  ****    0 ROOT
