@<TRIPOS>MOLECULE
PFOA.sdf
   25    24     1     0     0
SMALL
bcc


@<TRIPOS>ATOM
      1 C            0.7680    -0.1580    -0.2400 c3         1 UNL       0.380600
      2 C1           0.2050     0.8600    -1.2260 c3         1 UNL       0.340600
      3 C2           0.5570     0.5640    -2.6680 c3         1 UNL       0.241600
      4 C3           0.0540    -0.8460    -3.0260 c          1 UNL       0.948600
      5 O           -1.1850    -1.0450    -2.8710 o          1 UNL      -0.764300
      6 O1           0.9330    -1.6920    -3.3770 o          1 UNL      -0.764300
      7 F            0.2700    -1.4020    -0.4340 f          1 UNL      -0.200300
      8 C4           0.4500     0.2270     1.1910 c3         1 UNL       0.380600
      9 F1           2.1180    -0.2590    -0.3850 f          1 UNL      -0.200300
     10 F2          -1.1350     1.0140    -1.0360 f          1 UNL      -0.221800
     11 F3           0.7370     2.0970    -0.9270 f          1 UNL      -0.221800
     12 F4           0.0040     1.4930    -3.5080 f          1 UNL      -0.239300
     13 F5           1.9100     0.6560    -2.8550 f          1 UNL      -0.239300
     14 C5           1.1700    -0.6380     2.2100 c3         1 UNL       0.333600
     15 C6           0.8670    -2.1190     2.2950 c3         1 UNL       0.365600
     16 C7          -0.5860    -2.4150     2.6410 c3         1 UNL       0.595900
     17 F6          -1.1830    -1.4160     3.3300 f          1 UNL      -0.215300
     18 F7          -1.3390    -2.6520     1.5450 f          1 UNL      -0.215300
     19 F8           1.2660    -2.7970     1.1900 f          1 UNL      -0.161800
     20 F9           1.6620    -2.6240     3.3050 f          1 UNL      -0.161800
     21 F10          2.5240    -0.4810     2.0500 f          1 UNL      -0.201800
     22 F11          0.9290    -0.1040     3.4570 f          1 UNL      -0.201800
     23 F12          0.8170     1.5240     1.4280 f          1 UNL      -0.181800
     24 F13         -0.8900     0.1820     1.4220 f          1 UNL      -0.181800
     25 F14         -0.6820    -3.5250     3.4210 f          1 UNL      -0.215300
@<TRIPOS>BOND
     1     1     2 1   
     2     1     7 1   
     3     1     8 1   
     4     1     9 1   
     5     2     3 1   
     6     2    10 1   
     7     2    11 1   
     8     3     4 1   
     9     3    12 1   
    10     3    13 1   
    11     4     5 1   
    12     4     6 1   
    13     8    14 1   
    14     8    23 1   
    15     8    24 1   
    16    14    15 1   
    17    14    21 1   
    18    14    22 1   
    19    15    19 1   
    20    15    20 1   
    21    16    15 1   
    22    16    17 1   
    23    16    18 1   
    24    16    25 1   
@<TRIPOS>SUBSTRUCTURE
     1 UNL         1 TEMP              0 ****  ****    0 ROOT
