@<TRIPOS>MOLECULE
PFOS.sdf
   29    28     1     0     0
SMALL
bcc


@<TRIPOS>ATOM
      1 C            0.9760     0.2940     0.2200 c3         1 UNL       0.357600
      2 C1           2.4530    -0.0650     0.0430 c3         1 UNL       0.356600
      3 C2           3.4790     1.0100    -0.2150 c3         1 UNL       0.348400
      4 S            3.5350     2.1710     1.1680 s6         1 UNL       1.434800
      5 O            2.2520     2.8640     1.0740 o          1 UNL      -0.691867
      6 O1           3.6850     1.3510     2.3640 o          1 UNL      -0.691867
      7 C3           0.3680     1.0590    -0.9500 c3         1 UNL       0.350600
      8 F            0.6990     0.9060     1.3900 f          1 UNL      -0.192300
      9 F1           0.2970    -0.9060     0.3120 f          1 UNL      -0.192300
     10 F2           2.8320    -0.8870     1.0800 f          1 UNL      -0.218800
     11 F3           2.5120    -0.9300    -1.0500 f          1 UNL      -0.218800
     12 F4           4.7020     0.4030    -0.4330 f          1 UNL      -0.246300
     13 F5           3.1870     1.6250    -1.4070 f          1 UNL      -0.246300
     14 F6           0.7920     0.4700    -2.1170 f          1 UNL      -0.189300
     15 C4          -1.1530     1.0550    -1.0020 c3         1 UNL       0.351600
     16 F7           0.7970     2.3380    -1.0300 f          1 UNL      -0.189300
     17 O2           4.6820     3.0390     0.8820 o          1 UNL      -0.691867
     18 C5          -1.9730     1.6940     0.1080 c3         1 UNL       0.349600
     19 C6          -1.8430     3.1710     0.4120 c3         1 UNL       0.350600
     20 C7          -2.2040     4.1030    -0.7400 c3         1 UNL       0.600900
     21 F8          -3.3030     1.4670    -0.1870 f          1 UNL      -0.183800
     22 F9          -1.7690     0.9850     1.2620 f          1 UNL      -0.183800
     23 F10         -1.5180     1.6310    -2.1920 f          1 UNL      -0.185800
     24 F11         -1.5790    -0.2470    -1.1270 f          1 UNL      -0.185800
     25 F12         -2.7060     3.4390     1.4570 f          1 UNL      -0.181300
     26 F13         -0.6140     3.4570     0.9020 f          1 UNL      -0.181300
     27 F14         -2.7720     3.4830    -1.7940 f          1 UNL      -0.209633
     28 F15         -3.0960     5.0540    -0.3480 f          1 UNL      -0.209633
     29 F16         -1.1250     4.7740    -1.2070 f          1 UNL      -0.209633
@<TRIPOS>BOND
     1     1     2 1   
     2     1     7 1   
     3     1     8 1   
     4     1     9 1   
     5     2     3 1   
     6     2    10 1   
     7     2    11 1   
     8     3     4 1   
     9     3    12 1   
    10     3    13 1   
    11     4     5 1   
    12     4     6 1   
    13     4    17 1   
    14     7    14 1   
    15     7    15 1   
    16     7    16 1   
    17    15    18 1   
    18    15    23 1   
    19    15    24 1   
    20    18    19 1   
    21    18    21 1   
    22    18    22 1   
    23    19    20 1   
    24    19    25 1   
    25    19    26 1   
    26    20    27 1   
    27    20    28 1   
    28    20    29 1   
@<TRIPOS>SUBSTRUCTURE
     1 UNL         1 TEMP              0 ****  ****    0 ROOT
